*SPEF "IEEE 1481-1998"
*DESIGN "openMSP430" 
*DATE "16.17.2023" 
*VENDOR "TNU"
*PROGRAM "VSD "
*VERION "1.1"
*DESIGN_FLOW "Prelayout STA "
*DIVIDER ";"
*DELIMITER ";"
*BUS_DELIMITER 
*T_UNIT 1 PS 
*C_UNIT 1 PF 
*R_UNIT 1 kOHM
